
Version,
  9.6;                                    !- Version Identifier

Timestep,
  6;                                      !- Number of Timesteps per Hour

LifeCycleCost:Parameters,
  Life Cycle Cost Parameters,             !- Name
  EndOfYear,                              !- Discounting Convention
  ConstantDollar,                         !- Inflation Approach
  0.03,                                   !- Real Discount Rate
  ,                                       !- Nominal Discount Rate
  ,                                       !- Inflation
  ,                                       !- Base Date Month
  2011,                                   !- Base Date Year
  ,                                       !- Service Date Month
  2011,                                   !- Service Date Year
  25,                                     !- Length of Study Period in Years
  ,                                       !- Tax rate
  None;                                   !- Depreciation Method

LifeCycleCost:UsePriceEscalation,
  U.S. Avg  Commercial-Electricity,       !- Name
  Electricity,                            !- Resource
  2011,                                   !- Escalation Start Year
  January,                                !- Escalation Start Month
  0.9838,                                 !- Year Escalation 1
  0.9730,                                 !- Year Escalation 2
  0.9632,                                 !- Year Escalation 3
  0.9611,                                 !- Year Escalation 4
  0.9571,                                 !- Year Escalation 5
  0.9553,                                 !- Year Escalation 6
  0.9539,                                 !- Year Escalation 7
  0.9521,                                 !- Year Escalation 8
  0.9546,                                 !- Year Escalation 9
  0.9550,                                 !- Year Escalation 10
  0.9553,                                 !- Year Escalation 11
  0.9564,                                 !- Year Escalation 12
  0.9575,                                 !- Year Escalation 13
  0.9596,                                 !- Year Escalation 14
  0.9618,                                 !- Year Escalation 15
  0.9614,                                 !- Year Escalation 16
  0.9618,                                 !- Year Escalation 17
  0.9618,                                 !- Year Escalation 18
  0.9593,                                 !- Year Escalation 19
  0.9589,                                 !- Year Escalation 20
  0.9607,                                 !- Year Escalation 21
  0.9625,                                 !- Year Escalation 22
  0.9650,                                 !- Year Escalation 23
  0.9708,                                 !- Year Escalation 24
  0.9751,                                 !- Year Escalation 25
  0.9762,                                 !- Year Escalation 26
  0.9766,                                 !- Year Escalation 27
  0.9766,                                 !- Year Escalation 28
  0.9769,                                 !- Year Escalation 29
  0.9773;                                 !- Year Escalation 30

LifeCycleCost:UsePriceEscalation,
  U.S. Avg  Commercial-Distillate Oil,    !- Name
  FuelOilNo1,                             !- Resource
  2011,                                   !- Escalation Start Year
  January,                                !- Escalation Start Month
  0.9714,                                 !- Year Escalation 1
  0.9730,                                 !- Year Escalation 2
  0.9942,                                 !- Year Escalation 3
  1.0164,                                 !- Year Escalation 4
  1.0541,                                 !- Year Escalation 5
  1.0928,                                 !- Year Escalation 6
  1.1267,                                 !- Year Escalation 7
  1.1580,                                 !- Year Escalation 8
  1.1792,                                 !- Year Escalation 9
  1.1967,                                 !- Year Escalation 10
  1.2200,                                 !- Year Escalation 11
  1.2333,                                 !- Year Escalation 12
  1.2566,                                 !- Year Escalation 13
  1.2709,                                 !- Year Escalation 14
  1.2826,                                 !- Year Escalation 15
  1.2985,                                 !- Year Escalation 16
  1.3102,                                 !- Year Escalation 17
  1.3250,                                 !- Year Escalation 18
  1.3261,                                 !- Year Escalation 19
  1.3282,                                 !- Year Escalation 20
  1.3324,                                 !- Year Escalation 21
  1.3356,                                 !- Year Escalation 22
  1.3431,                                 !- Year Escalation 23
  1.3510,                                 !- Year Escalation 24
  1.3568,                                 !- Year Escalation 25
  1.3606,                                 !- Year Escalation 26
  1.3637,                                 !- Year Escalation 27
  1.3674,                                 !- Year Escalation 28
  1.3706,                                 !- Year Escalation 29
  1.3743;                                 !- Year Escalation 30

LifeCycleCost:UsePriceEscalation,
  U.S. Avg  Commercial-Residual Oil,      !- Name
  FuelOilNo2,                             !- Resource
  2011,                                   !- Escalation Start Year
  January,                                !- Escalation Start Month
  0.8469,                                 !- Year Escalation 1
  0.8257,                                 !- Year Escalation 2
  0.8681,                                 !- Year Escalation 3
  0.8988,                                 !- Year Escalation 4
  0.9289,                                 !- Year Escalation 5
  0.9604,                                 !- Year Escalation 6
  0.9897,                                 !- Year Escalation 7
  1.0075,                                 !- Year Escalation 8
  1.0314,                                 !- Year Escalation 9
  1.0554,                                 !- Year Escalation 10
  1.0861,                                 !- Year Escalation 11
  1.1278,                                 !- Year Escalation 12
  1.1497,                                 !- Year Escalation 13
  1.1620,                                 !- Year Escalation 14
  1.1743,                                 !- Year Escalation 15
  1.1852,                                 !- Year Escalation 16
  1.1948,                                 !- Year Escalation 17
  1.2037,                                 !- Year Escalation 18
  1.2071,                                 !- Year Escalation 19
  1.2119,                                 !- Year Escalation 20
  1.2139,                                 !- Year Escalation 21
  1.2194,                                 !- Year Escalation 22
  1.2276,                                 !- Year Escalation 23
  1.2365,                                 !- Year Escalation 24
  1.2420,                                 !- Year Escalation 25
  1.2461,                                 !- Year Escalation 26
  1.2509,                                 !- Year Escalation 27
  1.2550,                                 !- Year Escalation 28
  1.2591,                                 !- Year Escalation 29
  1.2638;                                 !- Year Escalation 30

LifeCycleCost:UsePriceEscalation,
  U.S. Avg  Commercial-Natural gas,       !- Name
  NaturalGas,                             !- Resource
  2011,                                   !- Escalation Start Year
  January,                                !- Escalation Start Month
  0.9823,                                 !- Year Escalation 1
  0.9557,                                 !- Year Escalation 2
  0.9279,                                 !- Year Escalation 3
  0.9257,                                 !- Year Escalation 4
  0.9346,                                 !- Year Escalation 5
  0.9412,                                 !- Year Escalation 6
  0.9512,                                 !- Year Escalation 7
  0.9645,                                 !- Year Escalation 8
  0.9856,                                 !- Year Escalation 9
  1.0067,                                 !- Year Escalation 10
  1.0222,                                 !- Year Escalation 11
  1.0410,                                 !- Year Escalation 12
  1.0610,                                 !- Year Escalation 13
  1.0787,                                 !- Year Escalation 14
  1.0942,                                 !- Year Escalation 15
  1.1098,                                 !- Year Escalation 16
  1.1220,                                 !- Year Escalation 17
  1.1308,                                 !- Year Escalation 18
  1.1386,                                 !- Year Escalation 19
  1.1486,                                 !- Year Escalation 20
  1.1619,                                 !- Year Escalation 21
  1.1763,                                 !- Year Escalation 22
  1.1918,                                 !- Year Escalation 23
  1.2118,                                 !- Year Escalation 24
  1.2284,                                 !- Year Escalation 25
  1.2439,                                 !- Year Escalation 26
  1.2605,                                 !- Year Escalation 27
  1.2772,                                 !- Year Escalation 28
  1.2938,                                 !- Year Escalation 29
  1.3115;                                 !- Year Escalation 30

LifeCycleCost:UsePriceEscalation,
  U.S. Avg  Commercial-Coal,              !- Name
  Coal,                                   !- Resource
  2011,                                   !- Escalation Start Year
  January,                                !- Escalation Start Month
  0.9970,                                 !- Year Escalation 1
  1.0089,                                 !- Year Escalation 2
  1.0089,                                 !- Year Escalation 3
  0.9941,                                 !- Year Escalation 4
  0.9941,                                 !- Year Escalation 5
  1.0000,                                 !- Year Escalation 6
  1.0030,                                 !- Year Escalation 7
  1.0059,                                 !- Year Escalation 8
  1.0089,                                 !- Year Escalation 9
  1.0119,                                 !- Year Escalation 10
  1.0148,                                 !- Year Escalation 11
  1.0178,                                 !- Year Escalation 12
  1.0208,                                 !- Year Escalation 13
  1.0267,                                 !- Year Escalation 14
  1.0297,                                 !- Year Escalation 15
  1.0356,                                 !- Year Escalation 16
  1.0415,                                 !- Year Escalation 17
  1.0534,                                 !- Year Escalation 18
  1.0564,                                 !- Year Escalation 19
  1.0593,                                 !- Year Escalation 20
  1.0653,                                 !- Year Escalation 21
  1.0712,                                 !- Year Escalation 22
  1.0742,                                 !- Year Escalation 23
  1.0801,                                 !- Year Escalation 24
  1.0831,                                 !- Year Escalation 25
  1.0831,                                 !- Year Escalation 26
  1.0861,                                 !- Year Escalation 27
  1.0890,                                 !- Year Escalation 28
  1.0920,                                 !- Year Escalation 29
  1.0950;                                 !- Year Escalation 30

Building,
  Tiny House,                             !- Name
  0,                                      !- North Axis {deg}
  Suburbs,                                !- Terrain
  ,                                       !- Loads Convergence Tolerance Value {W}
  ,                                       !- Temperature Convergence Tolerance Value {deltaC}
  FullExterior,                           !- Solar Distribution
  ,                                       !- Maximum Number of Warmup Days
  ;                                       !- Minimum Number of Warmup Days

Zone,
  zone_1,                                 !- Name
  0,                                      !- Direction of Relative North {deg}
  0,                                      !- X Origin {m}
  0,                                      !- Y Origin {m}
  0,                                      !- Z Origin {m}
  ,                                       !- Type
  1,                                      !- Multiplier
  ,                                       !- Ceiling Height {m}
  ,                                       !- Volume {m3}
  ,                                       !- Floor Area {m2}
  ,                                       !- Zone Inside Convection Algorithm
  ,                                       !- Zone Outside Convection Algorithm
  Yes;                                    !- Part of Total Floor Area

BuildingSurface:Detailed,
  zone_1_Srf_0,                           !- Name
  Roof,                                   !- Surface Type
  Nomad ExtRoof,                          !- Construction Name
  zone_1,                                 !- Zone Name
  ,                                       !- Space Name
  Outdoors,                               !- Outside Boundary Condition
  ,                                       !- Outside Boundary Condition Object
  SunExposed,                             !- Sun Exposure
  WindExposed,                            !- Wind Exposure
  ,                                       !- View Factor to Ground
  ,                                       !- Number of Vertices
  -5.07986974716187, 2.40703248977661, 4.0719633102417, !- X,Y,Z Vertex 1 {m}
  -5.07986974716187, 2.16652774810791, 3.85541224479675, !- X,Y,Z Vertex 2 {m}
  -4.18286180496216, 1.30689489841461, 3.08139395713806, !- X,Y,Z Vertex 3 {m}
  3.00104165077209, 1.30689489841461, 3.08139395713806, !- X,Y,Z Vertex 4 {m}
  3.00104165077209, 2.40703248977661, 4.0719633102417; !- X,Y,Z Vertex 5 {m}

BuildingSurface:Detailed,
  zone_1_Srf_1,                           !- Name
  Wall,                                   !- Surface Type
  Nomad ExtWall,                          !- Construction Name
  zone_1,                                 !- Zone Name
  ,                                       !- Space Name
  Outdoors,                               !- Outside Boundary Condition
  ,                                       !- Outside Boundary Condition Object
  SunExposed,                             !- Sun Exposure
  WindExposed,                            !- Wind Exposure
  ,                                       !- View Factor to Ground
  ,                                       !- Number of Vertices
  -5.07986974716187, 2.64753699302673, 3.85541224479675, !- X,Y,Z Vertex 1 {m}
  -4.18286180496216, 3.507169008255, 3.08139395713806, !- X,Y,Z Vertex 2 {m}
  -4.18286180496216, 3.507169008255, 0.638175010681152, !- X,Y,Z Vertex 3 {m}
  -5.07986974716187, 2.64753699302673, 0.638175010681152; !- X,Y,Z Vertex 4 {m}

FenestrationSurface:Detailed,
  zone_1_Srf_1_glz_0_459ebe969bc048218b5c, !- Name
  Window,                                 !- Surface Type
  ASHRAE 189.1-2009 ExtWindow ClimateZone 1, !- Construction Name
  zone_1_Srf_1,                           !- Building Surface Name
  ,                                       !- Outside Boundary Condition Object
  ,                                       !- View Factor to Ground
  ,                                       !- Frame and Divider Name
  1,                                      !- Multiplier
  ,                                       !- Number of Vertices
  -4.3571310043335, 3.34016299247742, 2.6309826374054, !- X,Y,Z Vertex 1 {m}
  -4.3571310043335, 3.34016299247742, 1.58958256244659, !- X,Y,Z Vertex 2 {m}
  -4.90728616714478, 2.81292963027954, 1.58958256244659, !- X,Y,Z Vertex 3 {m}
  -4.90728616714478, 2.81292963027954, 2.6309826374054; !- X,Y,Z Vertex 4 {m}

BuildingSurface:Detailed,
  zone_1_Srf_10,                          !- Name
  Wall,                                   !- Surface Type
  Nomad ExtWall,                          !- Construction Name
  zone_1,                                 !- Zone Name
  ,                                       !- Space Name
  Outdoors,                               !- Outside Boundary Condition
  ,                                       !- Outside Boundary Condition Object
  SunExposed,                             !- Sun Exposure
  WindExposed,                            !- Wind Exposure
  ,                                       !- View Factor to Ground
  ,                                       !- Number of Vertices
  1.36912751197815, 2.40703248977661, 4.0719633102417, !- X,Y,Z Vertex 1 {m}
  1.36912751197815, 3.507169008255, 3.08139395713806, !- X,Y,Z Vertex 2 {m}
  1.36912751197815, 3.507169008255, 4.0719633102417; !- X,Y,Z Vertex 3 {m}

BuildingSurface:Detailed,
  zone_1_Srf_11,                          !- Name
  Roof,                                   !- Surface Type
  Nomad ExtRoof,                          !- Construction Name
  zone_1,                                 !- Zone Name
  ,                                       !- Space Name
  Outdoors,                               !- Outside Boundary Condition
  ,                                       !- Outside Boundary Condition Object
  SunExposed,                             !- Sun Exposure
  WindExposed,                            !- Wind Exposure
  ,                                       !- View Factor to Ground
  ,                                       !- Number of Vertices
  3.00104165077209, 2.40703248977661, 4.0719633102417, !- X,Y,Z Vertex 1 {m}
  3.00104165077209, 3.507169008255, 3.08139395713806, !- X,Y,Z Vertex 2 {m}
  1.36912751197815, 3.507169008255, 3.08139395713806, !- X,Y,Z Vertex 3 {m}
  1.36912751197815, 2.40703248977661, 4.0719633102417; !- X,Y,Z Vertex 4 {m}

BuildingSurface:Detailed,
  zone_1_Srf_12,                          !- Name
  Roof,                                   !- Surface Type
  Nomad ExtRoof,                          !- Construction Name
  zone_1,                                 !- Zone Name
  ,                                       !- Space Name
  Outdoors,                               !- Outside Boundary Condition
  ,                                       !- Outside Boundary Condition Object
  SunExposed,                             !- Sun Exposure
  WindExposed,                            !- Wind Exposure
  ,                                       !- View Factor to Ground
  ,                                       !- Number of Vertices
  -2.5871307849884, 2.40703248977661, 4.0719633102417, !- X,Y,Z Vertex 1 {m}
  -2.5871307849884, 3.507169008255, 3.08139395713806, !- X,Y,Z Vertex 2 {m}
  -4.18286180496216, 3.507169008255, 3.08139395713806, !- X,Y,Z Vertex 3 {m}
  -5.07986974716187, 2.64753699302673, 3.85541224479675, !- X,Y,Z Vertex 4 {m}
  -5.07986974716187, 2.40703248977661, 4.0719633102417; !- X,Y,Z Vertex 5 {m}

BuildingSurface:Detailed,
  zone_1_Srf_2,                           !- Name
  Wall,                                   !- Surface Type
  Nomad ExtWall,                          !- Construction Name
  zone_1,                                 !- Zone Name
  ,                                       !- Space Name
  Outdoors,                               !- Outside Boundary Condition
  ,                                       !- Outside Boundary Condition Object
  SunExposed,                             !- Sun Exposure
  WindExposed,                            !- Wind Exposure
  ,                                       !- View Factor to Ground
  ,                                       !- Number of Vertices
  -5.07986974716187, 2.40703248977661, 4.0719633102417, !- X,Y,Z Vertex 1 {m}
  -5.07986974716187, 2.64753699302673, 3.85541224479675, !- X,Y,Z Vertex 2 {m}
  -5.07986974716187, 2.64753699302673, 0.638175010681152, !- X,Y,Z Vertex 3 {m}
  -5.07986974716187, 2.16652774810791, 0.638175010681152, !- X,Y,Z Vertex 4 {m}
  -5.07986974716187, 2.16652774810791, 3.85541224479675; !- X,Y,Z Vertex 5 {m}

BuildingSurface:Detailed,
  zone_1_Srf_3,                           !- Name
  Wall,                                   !- Surface Type
  Nomad ExtWall,                          !- Construction Name
  zone_1,                                 !- Zone Name
  ,                                       !- Space Name
  Outdoors,                               !- Outside Boundary Condition
  ,                                       !- Outside Boundary Condition Object
  SunExposed,                             !- Sun Exposure
  WindExposed,                            !- Wind Exposure
  ,                                       !- View Factor to Ground
  ,                                       !- Number of Vertices
  -5.07986974716187, 2.16652774810791, 3.85541224479675, !- X,Y,Z Vertex 1 {m}
  -5.07986974716187, 2.16652774810791, 0.638175010681152, !- X,Y,Z Vertex 2 {m}
  -4.18286180496216, 1.30689489841461, 0.638175010681152, !- X,Y,Z Vertex 3 {m}
  -4.18286180496216, 1.30689489841461, 3.08139395713806; !- X,Y,Z Vertex 4 {m}

FenestrationSurface:Detailed,
  zone_1_Srf_3_glz_0_8a817659959c4945a1e4, !- Name
  Window,                                 !- Surface Type
  ASHRAE 189.1-2009 ExtWindow ClimateZone 1, !- Construction Name
  zone_1_Srf_3,                           !- Building Surface Name
  ,                                       !- Outside Boundary Condition Object
  ,                                       !- View Factor to Ground
  ,                                       !- Frame and Divider Name
  1,                                      !- Multiplier
  ,                                       !- Number of Vertices
  -4.90728616714478, 2.00113487243652, 2.6309826374054, !- X,Y,Z Vertex 1 {m}
  -4.90728616714478, 2.00113487243652, 1.58958256244659, !- X,Y,Z Vertex 2 {m}
  -4.3571310043335, 1.47390305995941, 1.58958256244659, !- X,Y,Z Vertex 3 {m}
  -4.3571310043335, 1.47390305995941, 2.6309826374054; !- X,Y,Z Vertex 4 {m}

BuildingSurface:Detailed,
  zone_1_Srf_4,                           !- Name
  Floor,                                  !- Surface Type
  Nomad ExtSlab,                          !- Construction Name
  zone_1,                                 !- Zone Name
  ,                                       !- Space Name
  Ground,                               !- Outside Boundary Condition
  ,                                       !- Outside Boundary Condition Object
  NoSun,                                  !- Sun Exposure
  WindExposed,                            !- Wind Exposure
  ,                                       !- View Factor to Ground
  ,                                       !- Number of Vertices
  3.00104165077209, 3.507169008255, 0.638175010681152, !- X,Y,Z Vertex 1 {m}
  3.00104165077209, 1.30689489841461, 0.638175010681152, !- X,Y,Z Vertex 2 {m}
  -4.18286180496216, 1.30689489841461, 0.638175010681152, !- X,Y,Z Vertex 3 {m}
  -5.07986974716187, 2.16652774810791, 0.638175010681152, !- X,Y,Z Vertex 4 {m}
  -5.07986974716187, 2.64753699302673, 0.638175010681152, !- X,Y,Z Vertex 5 {m}
  -4.18286180496216, 3.507169008255, 0.638175010681152; !- X,Y,Z Vertex 6 {m}

BuildingSurface:Detailed,
  zone_1_Srf_5,                           !- Name
  Wall,                                   !- Surface Type
  Nomad ExtWall,                          !- Construction Name
  zone_1,                                 !- Zone Name
  ,                                       !- Space Name
  Outdoors,                               !- Outside Boundary Condition
  ,                                       !- Outside Boundary Condition Object
  SunExposed,                             !- Sun Exposure
  WindExposed,                            !- Wind Exposure
  ,                                       !- View Factor to Ground
  ,                                       !- Number of Vertices
  -4.18286180496216, 1.30689489841461, 3.08139395713806, !- X,Y,Z Vertex 1 {m}
  -4.18286180496216, 1.30689489841461, 0.638175010681152, !- X,Y,Z Vertex 2 {m}
  3.00104165077209, 1.30689489841461, 0.638175010681152, !- X,Y,Z Vertex 3 {m}
  3.00104165077209, 1.30689489841461, 3.08139395713806; !- X,Y,Z Vertex 4 {m}

FenestrationSurface:Detailed,
  zone_1_Srf_5_glz_0_3a329a0094964c999850, !- Name
  Window,                                 !- Surface Type
  ASHRAE 189.1-2009 ExtWindow ClimateZone 1, !- Construction Name
  zone_1_Srf_5,                           !- Building Surface Name
  ,                                       !- Outside Boundary Condition Object
  ,                                       !- View Factor to Ground
  ,                                       !- Frame and Divider Name
  1,                                      !- Multiplier
  ,                                       !- Number of Vertices
  -3.38864755630493, 1.30689489841461, 2.63126158714294, !- X,Y,Z Vertex 1 {m}
  -3.38864755630493, 1.30689489841461, 1.58986175060272, !- X,Y,Z Vertex 2 {m}
  -2.47424602508545, 1.30689489841461, 1.58986175060272, !- X,Y,Z Vertex 3 {m}
  -2.47424602508545, 1.30689489841461, 2.63126158714294; !- X,Y,Z Vertex 4 {m}

FenestrationSurface:Detailed,
  zone_1_Srf_5_glz_1_e0bd222ca95e45e9a0c3, !- Name
  Window,                                 !- Surface Type
  ASHRAE 189.1-2009 ExtWindow ClimateZone 1, !- Construction Name
  zone_1_Srf_5,                           !- Building Surface Name
  ,                                       !- Outside Boundary Condition Object
  ,                                       !- View Factor to Ground
  ,                                       !- Frame and Divider Name
  1,                                      !- Multiplier
  ,                                       !- Number of Vertices
  0.142053261399269, 1.30689489841461, 2.63126158714294, !- X,Y,Z Vertex 1 {m}
  0.142053261399269, 1.30689489841461, 1.94546163082123, !- X,Y,Z Vertex 2 {m}
  0.827853262424469, 1.30689489841461, 1.94546163082123, !- X,Y,Z Vertex 3 {m}
  0.827853262424469, 1.30689489841461, 2.63126158714294; !- X,Y,Z Vertex 4 {m}

BuildingSurface:Detailed,
  zone_1_Srf_6,                           !- Name
  Wall,                                   !- Surface Type
  Nomad ExtWall,                          !- Construction Name
  zone_1,                                 !- Zone Name
  ,                                       !- Space Name
  Outdoors,                               !- Outside Boundary Condition
  ,                                       !- Outside Boundary Condition Object
  SunExposed,                             !- Sun Exposure
  WindExposed,                            !- Wind Exposure
  ,                                       !- View Factor to Ground
  ,                                       !- Number of Vertices
  3.00104165077209, 2.40703248977661, 4.0719633102417, !- X,Y,Z Vertex 1 {m}
  3.00104165077209, 1.30689489841461, 3.08139395713806, !- X,Y,Z Vertex 2 {m}
  3.00104165077209, 1.30689489841461, 0.638175010681152, !- X,Y,Z Vertex 3 {m}
  3.00104165077209, 3.507169008255, 0.638175010681152, !- X,Y,Z Vertex 4 {m}
  3.00104165077209, 3.507169008255, 3.08139395713806; !- X,Y,Z Vertex 5 {m}

BuildingSurface:Detailed,
  zone_1_Srf_7,                           !- Name
  Wall,                                   !- Surface Type
  Nomad ExtWall,                          !- Construction Name
  zone_1,                                 !- Zone Name
  ,                                       !- Space Name
  Outdoors,                               !- Outside Boundary Condition
  ,                                       !- Outside Boundary Condition Object
  SunExposed,                             !- Sun Exposure
  WindExposed,                            !- Wind Exposure
  ,                                       !- View Factor to Ground
  ,                                       !- Number of Vertices
  1.36912751197815, 3.507169008255, 4.0719633102417, !- X,Y,Z Vertex 1 {m}
  1.36912751197815, 3.507169008255, 3.08139395713806, !- X,Y,Z Vertex 2 {m}
  3.00104165077209, 3.507169008255, 3.08139395713806, !- X,Y,Z Vertex 3 {m}
  3.00104165077209, 3.507169008255, 0.638175010681152, !- X,Y,Z Vertex 4 {m}
  -4.18286180496216, 3.507169008255, 0.638175010681152, !- X,Y,Z Vertex 5 {m}
  -4.18286180496216, 3.507169008255, 3.08139395713806, !- X,Y,Z Vertex 6 {m}
  -2.5871307849884, 3.507169008255, 3.08139395713806, !- X,Y,Z Vertex 7 {m}
  -2.5871307849884, 3.507169008255, 4.0719633102417; !- X,Y,Z Vertex 8 {m}

FenestrationSurface:Detailed,
  zone_1_Srf_7_glz_0_384fefbb64cc4535bbda, !- Name
  Window,                                 !- Surface Type
  ASHRAE 189.1-2009 ExtWindow ClimateZone 1, !- Construction Name
  zone_1_Srf_7,                           !- Building Surface Name
  ,                                       !- Outside Boundary Condition Object
  ,                                       !- View Factor to Ground
  ,                                       !- Frame and Divider Name
  1,                                      !- Multiplier
  ,                                       !- Number of Vertices
  -1.27096509933472, 3.507169008255, 3.58287525177002, !- X,Y,Z Vertex 1 {m}
  -1.27096509933472, 3.507169008255, 3.08757519721985, !- X,Y,Z Vertex 2 {m}
  -2.00756478309631, 3.507169008255, 3.08757519721985, !- X,Y,Z Vertex 3 {m}
  -2.00756478309631, 3.507169008255, 3.58287525177002; !- X,Y,Z Vertex 4 {m}

FenestrationSurface:Detailed,
  zone_1_Srf_7_glz_1_7cc5a4d2ecb542e6ab98, !- Name
  Window,                                 !- Surface Type